<?xml version="1.0" encoding="UTF-8"?>

<!-- generated on 2024-06-25 21:02:18 by Eclipse SUMO netconvert Version 1.13.0
<configuration xmlns:xsi="http://www.w3.org/2001/XMLSchema-instance" xsi:noNamespaceSchemaLocation="http://sumo.dlr.de/xsd/netconvertConfiguration.xsd">

    <input>
        <osm-files value="export.osm"/>
    </input>

    <output>
        <output-file value="US_101_S.net.xml"/>
    </output>

    <projection>
        <proj.utm value="true"/>
    </projection>

    <report>
        <aggregate-warnings value="5"/>
    </report>

</configuration>
-->

<net version="1.9" junctionCornerDetail="5" limitTurnSpeed="5.50" xmlns:xsi="http://www.w3.org/2001/XMLSchema-instance" xsi:noNamespaceSchemaLocation="http://sumo.dlr.de/xsd/net_file.xsd">

    <location netOffset="-346862.83,-3768772.19" convBoundary="0.00,0.00,39417.43,13726.68" origBoundary="-118.661114,34.053495,-118.232166,34.173566" projParameter="+proj=utm +zone=11 +ellps=WGS84 +datum=WGS84 +units=m +no_defs"/>

    <type id="highway.bridleway" priority="1" numLanes="1" speed="2.78" allow="pedestrian" oneway="1" width="2.00"/>
    <type id="highway.bus_guideway" priority="1" numLanes="1" speed="27.78" allow="bus" oneway="1"/>
    <type id="highway.cycleway" priority="1" numLanes="1" speed="8.33" allow="bicycle" oneway="0" width="1.00"/>
    <type id="highway.footway" priority="1" numLanes="1" speed="2.78" allow="pedestrian" oneway="1" width="2.00"/>
    <type id="highway.ford" priority="1" numLanes="1" speed="2.78" allow="army" oneway="0"/>
    <type id="highway.living_street" priority="2" numLanes="1" speed="2.78" disallow="tram rail_urban rail rail_electric rail_fast ship" oneway="0"/>
    <type id="highway.motorway" priority="14" numLanes="2" speed="39.44" allow="private emergency authority army vip passenger hov taxi bus coach delivery truck trailer motorcycle evehicle custom1 custom2" oneway="1"/>
    <type id="highway.motorway_link" priority="9" numLanes="1" speed="22.22" allow="private emergency authority army vip passenger hov taxi bus coach delivery truck trailer motorcycle evehicle custom1 custom2" oneway="1"/>
    <type id="highway.path" priority="1" numLanes="1" speed="2.78" allow="pedestrian bicycle" oneway="0" width="2.00"/>
    <type id="highway.pedestrian" priority="1" numLanes="1" speed="2.78" allow="pedestrian" oneway="1" width="2.00"/>
    <type id="highway.primary" priority="12" numLanes="2" speed="27.78" disallow="tram rail_urban rail rail_electric rail_fast ship" oneway="0"/>
    <type id="highway.primary_link" priority="7" numLanes="1" speed="22.22" disallow="tram rail_urban rail rail_electric rail_fast ship" oneway="0"/>
    <type id="highway.raceway" priority="15" numLanes="2" speed="83.33" allow="vip" oneway="0"/>
    <type id="highway.residential" priority="3" numLanes="1" speed="13.89" disallow="tram rail_urban rail rail_electric rail_fast ship" oneway="0"/>
    <type id="highway.secondary" priority="11" numLanes="1" speed="27.78" disallow="tram rail_urban rail rail_electric rail_fast ship" oneway="0"/>
    <type id="highway.secondary_link" priority="6" numLanes="1" speed="22.22" disallow="tram rail_urban rail rail_electric rail_fast ship" oneway="0"/>
    <type id="highway.service" priority="1" numLanes="1" speed="5.56" allow="pedestrian delivery bicycle" oneway="0"/>
    <type id="highway.stairs" priority="1" numLanes="1" speed="1.39" allow="pedestrian" oneway="1" width="2.00"/>
    <type id="highway.step" priority="1" numLanes="1" speed="1.39" allow="pedestrian" oneway="1" width="2.00"/>
    <type id="highway.steps" priority="1" numLanes="1" speed="1.39" allow="pedestrian" oneway="1" width="2.00"/>
    <type id="highway.tertiary" priority="10" numLanes="1" speed="22.22" disallow="tram rail_urban rail rail_electric rail_fast ship" oneway="0"/>
    <type id="highway.tertiary_link" priority="5" numLanes="1" speed="22.22" disallow="tram rail_urban rail rail_electric rail_fast ship" oneway="0"/>
    <type id="highway.track" priority="1" numLanes="1" speed="5.56" allow="pedestrian motorcycle moped bicycle" oneway="0"/>
    <type id="highway.trunk" priority="13" numLanes="2" speed="27.78" disallow="pedestrian bicycle tram rail_urban rail rail_electric rail_fast ship" oneway="0"/>
    <type id="highway.trunk_link" priority="8" numLanes="1" speed="22.22" disallow="pedestrian bicycle tram rail_urban rail rail_electric rail_fast ship" oneway="0"/>
    <type id="highway.unclassified" priority="4" numLanes="1" speed="13.89" disallow="tram rail_urban rail rail_electric rail_fast ship" oneway="0"/>
    <type id="highway.unsurfaced" priority="1" numLanes="1" speed="8.33" disallow="tram rail_urban rail rail_electric rail_fast ship" oneway="0"/>
    <type id="railway.highspeed" priority="21" numLanes="1" speed="69.44" allow="rail_fast" oneway="1"/>
    <type id="railway.light_rail" priority="19" numLanes="1" speed="27.78" allow="rail_urban" oneway="1"/>
    <type id="railway.preserved" priority="16" numLanes="1" speed="27.78" allow="rail" oneway="1"/>
    <type id="railway.rail" priority="20" numLanes="1" speed="44.44" allow="rail" oneway="1"/>
    <type id="railway.subway" priority="18" numLanes="1" speed="27.78" allow="rail_urban" oneway="1"/>
    <type id="railway.tram" priority="17" numLanes="1" speed="13.89" allow="tram" oneway="1"/>

    <edge id=":10091322655_0" function="internal">
        <lane id=":10091322655_0_0" index="0" allow="private emergency authority army vip passenger hov taxi bus coach delivery truck trailer motorcycle evehicle custom1 custom2" speed="24.59" length="0.10" shape="38677.88,225.97 38677.88,225.97"/>
        <lane id=":10091322655_0_1" index="1" allow="private emergency authority army vip passenger hov taxi bus coach delivery truck trailer motorcycle evehicle custom1 custom2" speed="24.59" length="0.10" shape="38679.82,228.52 38679.82,228.52"/>
        <lane id=":10091322655_0_2" index="2" allow="private emergency authority army vip passenger hov taxi bus coach delivery truck trailer motorcycle evehicle custom1 custom2" speed="24.59" length="0.10" shape="38681.75,231.06 38681.75,231.06"/>
        <lane id=":10091322655_0_3" index="3" allow="private emergency authority army vip passenger hov taxi bus coach delivery truck trailer motorcycle evehicle custom1 custom2" speed="24.59" length="0.10" shape="38683.69,233.61 38683.69,233.61"/>
    </edge>
    <edge id=":10091322656_0" function="internal">
        <lane id=":10091322656_0_0" index="0" allow="private emergency authority army vip passenger hov taxi bus coach delivery truck trailer motorcycle evehicle custom1 custom2" speed="24.59" length="0.30" shape="38654.92,243.42 38655.16,243.23"/>
        <lane id=":10091322656_0_1" index="1" allow="private emergency authority army vip passenger hov taxi bus coach delivery truck trailer motorcycle evehicle custom1 custom2" speed="24.59" length="0.30" shape="38656.86,245.96 38657.10,245.78"/>
        <lane id=":10091322656_0_2" index="2" allow="private emergency authority army vip passenger hov taxi bus coach delivery truck trailer motorcycle evehicle custom1 custom2" speed="24.59" length="0.30" shape="38658.79,248.51 38659.03,248.33"/>
        <lane id=":10091322656_0_3" index="3" allow="private emergency authority army vip passenger hov taxi bus coach delivery truck trailer motorcycle evehicle custom1 custom2" speed="24.59" length="0.30" shape="38660.73,251.06 38660.97,250.88"/>
    </edge>
    <edge id=":10242336448_0" function="internal">
        <lane id=":10242336448_0_0" index="0" allow="private emergency authority army vip passenger hov taxi bus coach delivery truck trailer motorcycle evehicle custom1 custom2" speed="24.59" length="8.21" shape="28239.54,9020.69 28241.79,9019.83 28243.20,9018.88 28244.60,9017.93 28246.85,9017.07"/>
        <lane id=":10242336448_0_1" index="1" allow="private emergency authority army vip passenger hov taxi bus coach delivery truck trailer motorcycle evehicle custom1 custom2" speed="24.59" length="8.21" shape="28240.37,9023.78 28242.62,9022.92 28244.03,9021.97 28245.43,9021.02 28247.68,9020.16"/>
        <lane id=":10242336448_0_2" index="2" allow="private emergency authority army vip passenger hov taxi bus coach delivery truck trailer motorcycle evehicle custom1 custom2" speed="24.59" length="8.21" shape="28241.20,9026.87 28243.45,9026.01 28244.86,9025.06 28246.26,9024.11 28248.51,9023.25"/>
        <lane id=":10242336448_0_3" index="3" allow="private emergency authority army vip passenger hov taxi bus coach delivery truck trailer motorcycle evehicle custom1 custom2" speed="24.59" length="8.21" shape="28242.03,9029.96 28244.28,9029.10 28245.68,9028.15 28247.09,9027.20 28249.34,9026.34"/>
        <lane id=":10242336448_0_4" index="4" allow="private emergency authority army vip passenger hov taxi bus coach delivery truck trailer motorcycle evehicle custom1 custom2" speed="24.59" length="8.21" shape="28242.85,9033.05 28245.11,9032.19 28246.51,9031.24 28247.92,9030.30 28250.17,9029.43"/>
    </edge>
    <edge id=":122443458_0" function="internal">
        <lane id=":122443458_0_0" index="0" allow="private emergency authority army vip passenger hov taxi bus coach delivery truck trailer motorcycle evehicle custom1 custom2" speed="24.59" length="0.30" shape="26782.23,10521.87 26782.40,10521.72"/>
        <lane id=":122443458_0_1" index="1" allow="private emergency authority army vip passenger hov taxi bus coach delivery truck trailer motorcycle evehicle custom1 custom2" speed="24.59" length="0.30" shape="26784.34,10524.27 26784.54,10524.10"/>
        <lane id=":122443458_0_2" index="2" allow="private emergency authority army vip passenger hov taxi bus coach delivery truck trailer motorcycle evehicle custom1 custom2" speed="24.59" length="0.30" shape="26786.46,10526.68 26786.68,10526.48"/>
        <lane id=":122443458_0_3" index="3" allow="private emergency authority army vip passenger hov taxi bus coach delivery truck trailer motorcycle evehicle custom1 custom2" speed="24.59" length="0.30" shape="26788.57,10529.08 26788.82,10528.86"/>
        <lane id=":122443458_0_4" index="4" allow="private emergency authority army vip passenger hov taxi bus coach delivery truck trailer motorcycle evehicle custom1 custom2" speed="24.59" length="0.30" shape="26790.69,10531.48 26790.95,10531.24"/>
    </edge>
    <edge id=":122444516_0" function="internal">
        <lane id=":122444516_0_0" index="0" allow="private emergency authority army vip passenger hov taxi bus coach delivery truck trailer motorcycle evehicle custom1 custom2" speed="29.06" length="0.29" shape="1846.94,12110.16 1847.28,12110.30"/>
        <lane id=":122444516_0_1" index="1" allow="private emergency authority army vip passenger hov taxi bus coach delivery truck trailer motorcycle evehicle custom1 custom2" speed="29.06" length="0.29" shape="1845.73,12113.12 1846.02,12113.24"/>
        <lane id=":122444516_0_2" index="2" allow="private emergency authority army vip passenger hov taxi bus coach delivery truck trailer motorcycle evehicle custom1 custom2" speed="29.06" length="0.29" shape="1844.51,12116.08 1844.75,12116.18"/>
        <lane id=":122444516_0_3" index="3" allow="private emergency authority army vip passenger hov taxi bus coach delivery truck trailer motorcycle evehicle custom1 custom2" speed="29.06" length="0.29" shape="1843.30,12119.04 1843.49,12119.12"/>
    </edge>
    <edge id=":122484649_0" function="internal">
        <lane id=":122484649_0_0" index="0" allow="private emergency authority army vip passenger hov taxi bus coach delivery truck trailer motorcycle evehicle custom1 custom2" speed="24.59" length="0.29" shape="30407.84,6123.05 30408.01,6122.93"/>
        <lane id=":122484649_0_1" index="1" allow="private emergency authority army vip passenger hov taxi bus coach delivery truck trailer motorcycle evehicle custom1 custom2" speed="24.59" length="0.29" shape="30409.70,6125.66 30409.91,6125.50"/>
        <lane id=":122484649_0_2" index="2" allow="private emergency authority army vip passenger hov taxi bus coach delivery truck trailer motorcycle evehicle custom1 custom2" speed="24.59" length="0.29" shape="30411.56,6128.26 30411.81,6128.07"/>
        <lane id=":122484649_0_3" index="3" allow="private emergency authority army vip passenger hov taxi bus coach delivery truck trailer motorcycle evehicle custom1 custom2" speed="24.59" length="0.29" shape="30413.43,6130.86 30413.72,6130.65"/>
    </edge>
    <edge id=":122502558_0" function="internal">
        <lane id=":122502558_0_0" index="0" allow="private emergency authority army vip passenger hov taxi bus coach delivery truck trailer motorcycle evehicle custom1 custom2" speed="29.06" length="8.21" shape="6309.19,13228.77 6311.50,13228.07 6312.97,13227.22 6314.44,13226.37 6316.75,13225.67"/>
        <lane id=":122502558_0_1" index="1" allow="private emergency authority army vip passenger hov taxi bus coach delivery truck trailer motorcycle evehicle custom1 custom2" speed="29.06" length="8.21" shape="6309.81,13231.91 6312.11,13231.21 6313.58,13230.36 6315.05,13229.51 6317.36,13228.81"/>
        <lane id=":122502558_0_2" index="2" allow="private emergency authority army vip passenger hov taxi bus coach delivery truck trailer motorcycle evehicle custom1 custom2" speed="29.06" length="8.21" shape="6310.42,13235.05 6312.73,13234.35 6314.19,13233.50 6315.66,13232.66 6317.97,13231.95"/>
        <lane id=":122502558_0_3" index="3" allow="private emergency authority army vip passenger hov taxi bus coach delivery truck trailer motorcycle evehicle custom1 custom2" speed="29.06" length="8.21" shape="6311.04,13238.19 6313.34,13237.49 6314.81,13236.64 6316.27,13235.80 6318.58,13235.10"/>
        <lane id=":122502558_0_4" index="4" allow="private emergency authority army vip passenger hov taxi bus coach delivery truck trailer motorcycle evehicle custom1 custom2" speed="29.06" length="8.21" shape="6311.65,13241.33 6313.95,13240.63 6315.42,13239.78 6316.88,13238.94 6319.19,13238.24"/>
    </edge>
    <edge id=":122506067_0" function="internal">
        <lane id=":122506067_0_0" index="0" allow="private emergency authority army vip passenger hov taxi bus coach delivery truck trailer motorcycle evehicle custom1 custom2" speed="29.06" length="0.30" shape="9624.92,13715.25 9625.20,13715.24"/>
        <lane id=":122506067_0_1" index="1" allow="private emergency authority army vip passenger hov taxi bus coach delivery truck trailer motorcycle evehicle custom1 custom2" speed="29.06" length="0.30" shape="9625.02,13718.45 9625.31,13718.44"/>
        <lane id=":122506067_0_2" index="2" allow="private emergency authority army vip passenger hov taxi bus coach delivery truck trailer motorcycle evehicle custom1 custom2" speed="29.06" length="0.30" shape="9625.13,13721.64 9625.42,13721.63"/>
        <lane id=":122506067_0_3" index="3" allow="private emergency authority army vip passenger hov taxi bus coach delivery truck trailer motorcycle evehicle custom1 custom2" speed="29.06" length="0.30" shape="9625.23,13724.84 9625.54,13724.83"/>
        <lane id=":122506067_0_4" index="4" allow="private emergency authority army vip passenger hov taxi bus coach delivery truck trailer motorcycle evehicle custom1 custom2" speed="29.06" length="0.30" shape="9625.33,13728.04 9625.65,13728.03"/>
    </edge>
    <edge id=":122507298_0" function="internal">
        <lane id=":122507298_0_0" index="0" allow="private emergency authority army vip passenger hov taxi bus coach delivery truck trailer motorcycle evehicle custom1 custom2" speed="29.06" length="0.30" shape="2526.61,12399.60 2526.92,12399.73"/>
        <lane id=":122507298_0_1" index="1" allow="private emergency authority army vip passenger hov taxi bus coach delivery truck trailer motorcycle evehicle custom1 custom2" speed="29.06" length="0.30" shape="2525.38,12402.55 2525.66,12402.67"/>
        <lane id=":122507298_0_2" index="2" allow="private emergency authority army vip passenger hov taxi bus coach delivery truck trailer motorcycle evehicle custom1 custom2" speed="29.06" length="0.30" shape="2524.14,12405.51 2524.41,12405.62"/>
        <lane id=":122507298_0_3" index="3" allow="private emergency authority army vip passenger hov taxi bus coach delivery truck trailer motorcycle evehicle custom1 custom2" speed="29.06" length="0.30" shape="2522.91,12408.46 2523.15,12408.56"/>
    </edge>
    <edge id=":122507383_0" function="internal">
        <lane id=":122507383_0_0" index="0" allow="private emergency authority army vip passenger hov taxi bus coach delivery truck trailer motorcycle evehicle custom1 custom2" speed="29.06" length="0.39" shape="3222.64,12696.63 3222.89,12696.74"/>
        <lane id=":122507383_0_1" index="1" allow="private emergency authority army vip passenger hov taxi bus coach delivery truck trailer motorcycle evehicle custom1 custom2" speed="29.06" length="0.39" shape="3221.39,12699.58 3221.71,12699.71"/>
        <lane id=":122507383_0_2" index="2" allow="private emergency authority army vip passenger hov taxi bus coach delivery truck trailer motorcycle evehicle custom1 custom2" speed="29.06" length="0.39" shape="3220.13,12702.52 3220.53,12702.69"/>
        <lane id=":122507383_0_3" index="3" allow="private emergency authority army vip passenger hov taxi bus coach delivery truck trailer motorcycle evehicle custom1 custom2" speed="29.06" length="0.39" shape="3218.87,12705.46 3219.36,12705.66"/>
    </edge>
    <edge id=":123503737_0" function="internal">
        <lane id=":123503737_0_0" index="0" allow="private emergency authority army vip passenger hov taxi bus coach delivery truck trailer motorcycle evehicle custom1 custom2" speed="29.06" length="0.30" shape="1194.20,11786.92 1194.47,11787.05"/>
        <lane id=":123503737_0_1" index="1" allow="private emergency authority army vip passenger hov taxi bus coach delivery truck trailer motorcycle evehicle custom1 custom2" speed="29.06" length="0.30" shape="1192.76,11789.77 1193.03,11789.91"/>
        <lane id=":123503737_0_2" index="2" allow="private emergency authority army vip passenger hov taxi bus coach delivery truck trailer motorcycle evehicle custom1 custom2" speed="29.06" length="0.30" shape="1191.32,11792.63 1191.59,11792.77"/>
        <lane id=":123503737_0_3" index="3" allow="private emergency authority army vip passenger hov taxi bus coach delivery truck trailer motorcycle evehicle custom1 custom2" speed="29.06" length="0.30" shape="1189.88,11795.49 1190.14,11795.62"/>
    </edge>
    <edge id=":1371866055_0" function="internal">
        <lane id=":1371866055_0_0" index="0" allow="private emergency authority army vip passenger hov taxi bus coach delivery truck trailer motorcycle evehicle custom1 custom2" speed="29.06" length="0.32" shape="25970.61,11327.99 25970.82,11327.92"/>
        <lane id=":1371866055_0_1" index="1" allow="private emergency authority army vip passenger hov taxi bus coach delivery truck trailer motorcycle evehicle custom1 custom2" speed="29.06" length="0.32" shape="25971.58,11331.04 25971.88,11330.94"/>
        <lane id=":1371866055_0_2" index="2" allow="private emergency authority army vip passenger hov taxi bus coach delivery truck trailer motorcycle evehicle custom1 custom2" speed="29.06" length="0.32" shape="25972.55,11334.09 25972.94,11333.96"/>
    </edge>
    <edge id=":1371866059_0" function="internal">
        <lane id=":1371866059_0_0" index="0" allow="private emergency authority army vip passenger hov taxi bus coach delivery truck trailer motorcycle evehicle custom1 custom2" speed="29.06" length="8.61" shape="25516.46,11369.43 25518.76,11368.92 25520.14,11367.78 25521.52,11366.58 25523.81,11365.88"/>
        <lane id=":1371866059_0_1" index="1" allow="private emergency authority army vip passenger hov taxi bus coach delivery truck trailer motorcycle evehicle custom1 custom2" speed="29.06" length="8.61" shape="25516.48,11372.63 25518.85,11372.12 25520.30,11370.98 25521.73,11369.78 25524.10,11369.07"/>
        <lane id=":1371866059_0_2" index="2" allow="private emergency authority army vip passenger hov taxi bus coach delivery truck trailer motorcycle evehicle custom1 custom2" speed="29.06" length="8.61" shape="25516.50,11375.83 25518.95,11375.32 25520.45,11374.18 25521.94,11372.97 25524.38,11372.25"/>
    </edge>
    <edge id=":15307193_0" function="internal">
        <lane id=":15307193_0_0" index="0" allow="private emergency authority army vip passenger hov taxi bus coach delivery truck trailer motorcycle evehicle custom1 custom2" speed="29.06" length="0.63" shape="14758.88,13297.71 14759.00,13297.66"/>
        <lane id=":15307193_0_1" index="1" allow="private emergency authority army vip passenger hov taxi bus coach delivery truck trailer motorcycle evehicle custom1 custom2" speed="29.06" length="0.63" shape="14760.15,13300.65 14760.49,13300.49"/>
        <lane id=":15307193_0_2" index="2" allow="private emergency authority army vip passenger hov taxi bus coach delivery truck trailer motorcycle evehicle custom1 custom2" speed="29.06" length="0.63" shape="14761.41,13303.59 14761.98,13303.32"/>
        <lane id=":15307193_0_3" index="3" allow="private emergency authority army vip passenger hov taxi bus coach delivery truck trailer motorcycle evehicle custom1 custom2" speed="29.06" length="0.63" shape="14762.68,13306.53 14763.47,13306.16"/>
        <lane id=":15307193_0_4" index="4" allow="private emergency authority army vip passenger hov taxi bus coach delivery truck trailer motorcycle evehicle custom1 custom2" speed="29.06" length="0.63" shape="14763.94,13309.47 14764.96,13308.99"/>
    </edge>
    <edge id=":1613371778_0" function="internal">
        <lane id=":1613371778_0_0" index="0" allow="private emergency authority army vip passenger hov taxi bus coach delivery truck trailer motorcycle evehicle custom1 custom2" speed="24.59" length="8.80" shape="37530.52,1390.59 37532.05,1388.58 37532.48,1386.74 37532.92,1384.90 37534.46,1382.91"/>
        <lane id=":1613371778_0_1" index="1" allow="private emergency authority army vip passenger hov taxi bus coach delivery truck trailer motorcycle evehicle custom1 custom2" speed="24.59" length="8.80" shape="37532.63,1392.99 37534.15,1390.99 37534.59,1389.15 37535.02,1387.32 37536.55,1385.33"/>
        <lane id=":1613371778_0_2" index="2" allow="private emergency authority army vip passenger hov taxi bus coach delivery truck trailer motorcycle evehicle custom1 custom2" speed="24.59" length="8.80" shape="37534.74,1395.40 37536.26,1393.40 37536.69,1391.57 37537.12,1389.73 37538.65,1387.75"/>
    </edge>
    <edge id=":1613371800_0" function="internal">
        <lane id=":1613371800_0_0" index="0" allow="private emergency authority army vip passenger hov taxi bus coach delivery truck trailer motorcycle evehicle custom1 custom2" speed="24.59" length="8.21" shape="35984.96,2210.25 35986.99,2208.95 35988.18,2207.74 35989.37,2206.54 35991.41,2205.24"/>
        <lane id=":1613371800_0_1" index="1" allow="private emergency authority army vip passenger hov taxi bus coach delivery truck trailer motorcycle evehicle custom1 custom2" speed="24.59" length="8.21" shape="35986.39,2213.11 35988.42,2211.82 35989.61,2210.61 35990.80,2209.40 35992.84,2208.11"/>
        <lane id=":1613371800_0_2" index="2" allow="private emergency authority army vip passenger hov taxi bus coach delivery truck trailer motorcycle evehicle custom1 custom2" speed="24.59" length="8.21" shape="35987.82,2215.97 35989.85,2214.68 35991.04,2213.47 35992.23,2212.26 35994.26,2210.97"/>
        <lane id=":1613371800_0_3" index="3" allow="private emergency authority army vip passenger hov taxi bus coach delivery truck trailer motorcycle evehicle custom1 custom2" speed="24.59" length="8.21" shape="35989.25,2218.84 35991.29,2217.54 35992.47,2216.33 35993.66,2215.13 35995.69,2213.83"/>
    </edge>
    <edge id=":1613371883_0" function="internal">
        <lane id=":1613371883_0_0" index="0" allow="private emergency authority army vip passenger hov taxi bus coach delivery truck trailer motorcycle evehicle custom1 custom2" speed="24.59" length="0.37" shape="31642.42,5494.76 31642.48,5494.69"/>
        <lane id=":1613371883_0_1" index="1" allow="private emergency authority army vip passenger hov taxi bus coach delivery truck trailer motorcycle evehicle custom1 custom2" speed="24.59" length="0.37" shape="31644.99,5496.67 31645.15,5496.44"/>
        <lane id=":1613371883_0_2" index="2" allow="private emergency authority army vip passenger hov taxi bus coach delivery truck trailer motorcycle evehicle custom1 custom2" speed="24.59" length="0.37" shape="31647.56,5498.58 31647.83,5498.20"/>
        <lane id=":1613371883_0_3" index="3" allow="private emergency authority army vip passenger hov taxi bus coach delivery truck trailer motorcycle evehicle custom1 custom2" speed="24.59" length="0.37" shape="31650.13,5500.49 31650.50,5499.95"/>
    </edge>
    <edge id=":1613371895_0" function="internal">
        <lane id=":1613371895_0_0" index="0" allow="private emergency authority army vip passenger hov taxi bus coach delivery truck trailer motorcycle evehicle custom1 custom2" speed="24.59" length="8.10" shape="31433.98,5673.86 31435.95,5672.69 31437.08,5671.54 31438.20,5670.36 31440.11,5669.07"/>
        <lane id=":1613371895_0_1" index="1" allow="private emergency authority army vip passenger hov taxi bus coach delivery truck trailer motorcycle evehicle custom1 custom2" speed="24.59" length="8.10" shape="31435.31,5676.77 31437.33,5675.58 31438.50,5674.41 31439.64,5673.21 31441.60,5671.90"/>
        <lane id=":1613371895_0_2" index="2" allow="private emergency authority army vip passenger hov taxi bus coach delivery truck trailer motorcycle evehicle custom1 custom2" speed="24.59" length="8.10" shape="31436.64,5679.69 31438.70,5678.47 31439.91,5677.29 31441.09,5676.07 31443.09,5674.74"/>
        <lane id=":1613371895_0_3" index="3" allow="private emergency authority army vip passenger hov taxi bus coach delivery truck trailer motorcycle evehicle custom1 custom2" speed="24.59" length="8.10" shape="31437.97,5682.60 31440.08,5681.36 31441.32,5680.16 31442.53,5678.93 31444.59,5677.57"/>
    </edge>
    <edge id=":1613487145_0" function="internal">
        <lane id=":1613487145_0_0" index="0" allow="private emergency authority army vip passenger hov taxi bus coach delivery truck trailer motorcycle evehicle custom1 custom2" speed="24.59" length="0.50" shape="32837.20,3810.02 32837.65,3809.52"/>
        <lane id=":1613487145_0_1" index="1" allow="private emergency authority army vip passenger hov taxi bus coach delivery truck trailer motorcycle evehicle custom1 custom2" speed="24.59" length="0.50" shape="32839.61,3812.12 32839.98,3811.70"/>
        <lane id=":1613487145_0_2" index="2" allow="private emergency authority army vip passenger hov taxi bus coach delivery truck trailer motorcycle evehicle custom1 custom2" speed="24.59" length="0.50" shape="32842.02,3814.22 32842.32,3813.89"/>
        <lane id=":1613487145_0_3" index="3" allow="private emergency authority army vip passenger hov taxi bus coach delivery truck trailer motorcycle evehicle custom1 custom2" speed="24.59" length="0.50" shape="32844.44,3816.32 32844.66,3816.07"/>
    </edge>
    <edge id=":1614923140_0" function="internal">
        <lane id=":1614923140_0_0" index="0" allow="private emergency authority army vip passenger hov taxi bus coach delivery truck trailer motorcycle evehicle custom1 custom2" speed="24.59" length="0.66" shape="36515.90,1924.25 36516.70,1923.83"/>
        <lane id=":1614923140_0_1" index="1" allow="private emergency authority army vip passenger hov taxi bus coach delivery truck trailer motorcycle evehicle custom1 custom2" speed="24.59" length="0.66" shape="36517.45,1927.05 36518.11,1926.70"/>
        <lane id=":1614923140_0_2" index="2" allow="private emergency authority army vip passenger hov taxi bus coach delivery truck trailer motorcycle evehicle custom1 custom2" speed="24.59" length="0.66" shape="36519.01,1929.85 36519.53,1929.57"/>
        <lane id=":1614923140_0_3" index="3" allow="private emergency authority army vip passenger hov taxi bus coach delivery truck trailer motorcycle evehicle custom1 custom2" speed="24.59" length="0.66" shape="36520.56,1932.64 36520.94,1932.44"/>
    </edge>
    <edge id=":1614923276_0" function="internal">
        <lane id=":1614923276_0_0" index="0" allow="private emergency authority army vip passenger hov taxi bus coach delivery truck trailer motorcycle evehicle custom1 custom2" speed="24.59" length="8.21" shape="35266.66,2543.17 35268.83,2542.12 35270.15,2541.06 35271.47,2539.99 35273.64,2538.94"/>
        <lane id=":1614923276_0_1" index="1" allow="private emergency authority army vip passenger hov taxi bus coach delivery truck trailer motorcycle evehicle custom1 custom2" speed="24.59" length="8.21" shape="35267.75,2546.18 35269.92,2545.13 35271.24,2544.07 35272.56,2543.00 35274.73,2541.95"/>
        <lane id=":1614923276_0_2" index="2" allow="private emergency authority army vip passenger hov taxi bus coach delivery truck trailer motorcycle evehicle custom1 custom2" speed="24.59" length="8.21" shape="35268.84,2549.19 35271.01,2548.14 35272.33,2547.08 35273.65,2546.01 35275.82,2544.97"/>
        <lane id=":1614923276_0_3" index="3" allow="private emergency authority army vip passenger hov taxi bus coach delivery truck trailer motorcycle evehicle custom1 custom2" speed="24.59" length="8.21" shape="35269.92,2552.20 35272.09,2551.15 35273.41,2550.09 35274.73,2549.02 35276.90,2547.98"/>
    </edge>
    <edge id=":1614923457_0" function="internal">
        <lane id=":1614923457_0_0" index="0" allow="private emergency authority army vip passenger hov taxi bus coach delivery truck trailer motorcycle evehicle custom1 custom2" speed="24.59" length="8.21" shape="33703.59,3095.88 33705.54,3094.49 33706.66,3093.22 33707.77,3091.95 33709.71,3090.54"/>